 <NUMBER OF ZONES> 4											
<NUMBER OF NODES> 4											
<FIRST THRU NODE> 2											
<NUMBER OF LINKS> 5
<END OF METADATA>											


~ 	Init node 	Term node 	Capacity 	Length 	Free Flow Speed	 B	Power	Speed limit 	Toll 	Type	;
	1	2	800	1	60	1	1	0	0	1	;
	2	4	1600	1	60	1	1	0	0	1	;
	1	3	1600	1	60	1	1	0	0	1	;
	3	4	800	1	60	1	1	0	0	1	;
	2	3	1600	1	60	1	1	0	0	1	;
