<NUMBER OF ZONES> 2
<TOTAL OD FLOW> 2
<END OF METADATA>


Origin 	1 
    1 :      0.0;     2 :    0.0;     3 :      20.0;     

Origin 	2 
    1 :    0.0;     2 :      0.0;     3 :      0.0;

Origin 	3 
    1 :    0.0;     2 :    0.0;     3 :      0.0; 

 

