<NUMBER OF ZONES> 7											
<NUMBER OF NODES> 7											
<FIRST THRU NODE> 2											
<NUMBER OF LINKS> 6
<END OF METADATA>											


~ 	Init node 	Term node 	Capacity 	Length 	Free Flow Time 	B	Power	Speed limit 	Toll 	Type	;
	1	2	100	1	5	1	1	0	0	1	;
	1	3	100	1	5	1	1	0	0	1	;
	2	4	100	1	5	1	1	0	0	1	;
	2	5	100	1	5	1	1	0	0	1	;
	3	6	100	1	5	1	1	0	0	1	;
	3	7	100	1	5	1	1	0	0	1	;
