<NUMBER OF ZONES> 3
<TOTAL OD FLOW> 4000.0
<END OF METADATA>


Origin 	1 
    1 :      0.0;     2 :    0;     3 :    4000.0;    4 :      0.0;     5 :    0;     6 :    0.0;     7 :    0.0;

Origin 	2 
    1 :    0.0;     2 :      0.0;     3 :    0.0;    4 :      0.0;     5 :    0;     6 :    0.0;     7 :    0.0;  

Origin 	3 
    1 :    0.0;     2 :    0.0;     3 :      0.0;    4 :      0.0;     5 :    0;     6 :    0.0;     7 :    0.0; 
 

