<NUMBER OF ZONES> 17
<TOTAL OD FLOW> 4000.0
<END OF METADATA>


Origin 	1 
    1 :      0.0;     2 :      0.0;     3 :      0.0;     4 :      0.0;     5 :    440.0; 
    6 :     80.0;     7 :      0.0;     8 :      0.0;     9 :      0.0;    10 :      0.0; 
   11 :      0.0;    12 :      0.0;    13 :      0.0;    14 :      0.0;    15 :    200.0; 
   16 :      0.0;    17 :     80.0;

Origin 	2
    1 :      0.0;     2 :      0.0;     3 :      0.0;     4 :      0.0;     5 :    275.0; 
    6 :     50.0;     7 :      0.0;     8 :      0.0;     9 :      0.0;    10 :      0.0; 
   11 :      0.0;    12 :      0.0;    13 :      0.0;    14 :      0.0;    15 :    125.0; 
   16 :      0.0;    17 :     50.0;    

Origin 	3 
    1 :      0.0;     2 :      0.0;     3 :      0.0;     4 :      0.0;     5 :      0.0; 
    6 :      0.0;     7 :      0.0;     8 :      0.0;     9 :      0.0;    10 :      0.0; 
   11 :      0.0;    12 :      0.0;    13 :      0.0;    14 :      0.0;    15 :      0.0; 
   16 :      0.0;    17 :      0.0;

Origin 	4
    1 :      0.0;     2 :      0.0;     3 :      0.0;     4 :      0.0;     5 :    110.0; 
    6 :     20.0;     7 :      0.0;     8 :      0.0;     9 :      0.0;    10 :      0.0; 
   11 :      0.0;    12 :      0.0;    13 :      0.0;    14 :      0.0;    15 :     50.0; 
   16 :      0.0;    17 :     20.0; 

Origin 	5
    1 :      0.0;     2 :      0.0;     3 :      0.0;     4 :      0.0;     5 :      0.0; 
    6 :      0.0;     7 :      0.0;     8 :      0.0;     9 :      0.0;    10 :      0.0; 
   11 :      0.0;    12 :      0.0;    13 :      0.0;    14 :      0.0;    15 :   1000.0; 
   16 :      0.0;    17 :   1000.0;   

Origin 	6 
    1 :      0.0;     2 :      0.0;     3 :      0.0;     4 :      0.0;     5 :    100.0; 
    6 :      0.0;     7 :      0.0;     8 :      0.0;     9 :      0.0;    10 :      0.0; 
   11 :      0.0;    12 :      0.0;    13 :      0.0;    14 :      0.0;    15 :      0.0; 
   16 :      0.0;    17 :    100.0; 

Origin 	7
    1 :      0.0;     2 :      0.0;     3 :      0.0;     4 :      0.0;     5 :    338.0; 
    6 :     62.0;     7 :      0.0;     8 :      0.0;     9 :      0.0;    10 :      0.0; 
   11 :      0.0;    12 :      0.0;    13 :      0.0;    14 :      0.0;    15 :    154.0; 
   16 :      0.0;    17 :     62.0;

Origin 	8 
    1 :      0.0;     2 :      0.0;     3 :      0.0;     4 :      0.0;     5 :    220.0; 
    6 :     40.0;     7 :      0.0;     8 :      0.0;     9 :      0.0;    10 :      0.0; 
   11 :      0.0;    12 :      0.0;    13 :      0.0;    14 :      0.0;    15 :    100.0; 
   16 :      0.0;    17 :     40.0; 

Origin 	9
    1 :      0.0;     2 :      0.0;     3 :      0.0;     4 :      0.0;     5 :    192.0; 
    6 :     35.0;     7 :      0.0;     8 :      0.0;     9 :      0.0;    10 :      0.0; 
   11 :      0.0;    12 :      0.0;    13 :      0.0;    14 :      0.0;    15 :     88.0; 
   16 :      0.0;    17 :     35.0;    

Origin 	10 
    1 :      0.0;     2 :      0.0;     3 :      0.0;     4 :      0.0;     5 :    192.0; 
    6 :     35.0;     7 :      0.0;     8 :      0.0;     9 :      0.0;    10 :      0.0; 
   11 :      0.0;    12 :      0.0;    13 :      0.0;    14 :      0.0;    15 :     88.0; 
   16 :      0.0;    17 :     35.0; 

Origin 	11
    1 :      0.0;     2 :      0.0;     3 :      0.0;     4 :      0.0;     5 :      0.0; 
    6 :      0.0;     7 :      0.0;     8 :      0.0;     9 :      0.0;    10 :      0.0; 
   11 :      0.0;    12 :      0.0;    13 :      0.0;    14 :      0.0;    15 :      0.0; 
   16 :      0.0;    17 :      0.0; 

Origin 	12
    1 :      0.0;     2 :      0.0;     3 :      0.0;     4 :      0.0;     5 :      0.0; 
    6 :      0.0;     7 :      0.0;     8 :      0.0;     9 :      0.0;    10 :      0.0; 
   11 :      0.0;    12 :      0.0;    13 :      0.0;    14 :      0.0;    15 :      0.0; 
   16 :      0.0;    17 :      0.0;   

Origin 	13 
    1 :      0.0;     2 :      0.0;     3 :      0.0;     4 :      0.0;     5 :      0.0; 
    6 :      0.0;     7 :      0.0;     8 :      0.0;     9 :      0.0;    10 :      0.0; 
   11 :      0.0;    12 :      0.0;    13 :      0.0;    14 :      0.0;    15 :      0.0; 
   16 :      0.0;    17 :      0.0;

Origin 	14
    1 :      0.0;     2 :      0.0;     3 :      0.0;     4 :      0.0;     5 :      0.0; 
    6 :      0.0;     7 :      0.0;     8 :      0.0;     9 :      0.0;    10 :      0.0; 
   11 :      0.0;    12 :      0.0;    13 :      0.0;    14 :      0.0;    15 :      0.0; 
   16 :      0.0;    17 :      0.0;

Origin 	15
    1 :      0.0;     2 :      0.0;     3 :      0.0;     4 :      0.0;     5 :   1000.0; 
    6 :      0.0;     7 :      0.0;     8 :      0.0;     9 :      0.0;    10 :      0.0; 
   11 :      0.0;    12 :      0.0;    13 :      0.0;    14 :      0.0;    15 :      0.0; 
   16 :      0.0;    17 :      0.0;    

Origin 	16 
    1 :      0.0;     2 :      0.0;     3 :      0.0;     4 :      0.0;     5 :      0.0; 
    6 :      0.0;     7 :      0.0;     8 :      0.0;     9 :      0.0;    10 :      0.0; 
   11 :      0.0;    12 :      0.0;    13 :      0.0;    14 :      0.0;    15 :      0.0; 
   16 :      0.0;    17 :      0.0; 

Origin 	17
    1 :      0.0;     2 :      0.0;     3 :      0.0;     4 :      0.0;     5 :   1000.0; 
    6 :      0.0;     7 :      0.0;     8 :      0.0;     9 :      0.0;    10 :      0.0; 
   11 :      0.0;    12 :      0.0;    13 :      0.0;    14 :      0.0;    15 :      0.0; 
   16 :      0.0;    17 :      0.0;   
 
     



