 <NUMBER OF ZONES> 5											
<NUMBER OF NODES> 5											
<FIRST THRU NODE> 2											
<NUMBER OF LINKS> 5
<END OF METADATA>											


~ 	Init node 	Term node 	Capacity 	Length 	Free Flow Speed	 B	Power	Speed limit 	Toll 	Type	;
	1	2	2600	0.25	60	1	1	0	0	1	;
	2	3	1800	0.125	30	1	1	0	0	1	;
	2	4	2000	0.5	60	1	1	0	0	1	;
	3	4	900	0.125	30	1	1	0	0	1	;
	4	5	2600	0.25	60	1	1	0	0	1	;
