<NUMBER OF ZONES> 3											
<NUMBER OF NODES> 3											
<FIRST THRU NODE> 2											
<NUMBER OF LINKS> 2
<END OF METADATA>											


~ 	Init node 	Term node 	Capacity 	Length 	Free Flow Time 	B	Power	Speed limit 	Toll 	Type	;
	1	2	800	1	5	1	1	0	0	1	;
	2	3	1000000	1	5	1	1	0	0	1	;

