<NUMBER OF ZONES> 6											
<NUMBER OF NODES> 6											
<FIRST THRU NODE> 2											
<NUMBER OF LINKS> 7
<END OF METADATA>											


~ 	Init node 	Term node 	Capacity 	Length 	Free Flow Time 	B	Power	Speed limit 	Toll 	Type	;
	1	2	3	1	2	1	1	0	0	1	;
	2	3	4	1	2	1	1	0	0	1	;
	2	4	1	1	2	1	1	0	0	1	;
	3	4	2	1	2	1	1	0	0	1	;
	3	5	6	1	2	1	1	0	0	1	;
	4	5	6	1	2	1	1	0	0	1	;
	5	6	10	1	2	1	1	0	0	1	;

