 <NUMBER OF ZONES> 6											
<NUMBER OF NODES> 6											
<FIRST THRU NODE> 1											
<NUMBER OF LINKS> 9
<END OF METADATA>											


~ 	Init node 	Term node 	Capacity 	Length 	Free Flow Speed	 B	Power	Speed limit 	Toll 	Type	;
	1	2	2700	1	60	1	1	0	0	1	;
	1	5	2700	1	60	1	1	0	0	1	;
	2	3	2700	1	60	1	1	0	0	1	;
	2	6	2700	1	60	1	1	0	0	1	;
	4	2	2700	2	60	1	1	0	0	1	;
	4	3	2700	1	60	1	1	0	0	1	;
	5	2	2700	1	60	1	1	0	0	1	;
	5	6	2700	1	60	1	1	0	0	1	;
	6	3	2700	1	60	1	1	0	0	1	;
