<NUMBER OF ZONES> 2
<TOTAL OD FLOW> 10.0
<END OF METADATA>


Origin 	1 
    1 :      0.0;     2 :    10.0;  

Origin 	2 
    1 :    0.0;     2 :      0.0;
 
 

