 <NUMBER OF ZONES> 6											
<NUMBER OF NODES> 6											
<FIRST THRU NODE> 2											
<NUMBER OF LINKS> 6
<END OF METADATA>											


~ 	Init node 	Term node 	Capacity 	Length 	Free Flow Speed	 B	Power	Speed limit 	Toll 	Type	;
	1	3	900	1	30	1	1	0	0	1	;
	2	4	1600	1	30	1	1	0	0	1	;
	1	4	900	2	30	1	1	0	0	1	;
	3	5	800	1	30	1	1	0	0	1	;
	4	5	2000	1	30	1	1	0	0	1	;
	5	6	2400	1	30	1	1	0	0	1	;
