 <NUMBER OF ZONES> 6											
<NUMBER OF NODES> 6											
<FIRST THRU NODE> 1											
<NUMBER OF LINKS> 9
<END OF METADATA>											


~ 	Init node 	Term node 	Capacity 	Length 	Free Flow Speed	 B	Power	Speed limit 	Toll 	Type	;
	1	4	1000	0.2	20	1	1	0	0	1	;
	2	3	1000	0.1	20	1	1	0	0	1	;
	3	2	1000	0.1	20	1	1	0	0	1	;
	3	4	1000	0.1	20	1	1	0	0	1	;
	3	6	1000	0.3	20	1	1	0	0	1	;
	4	3	1000	0.1	20	1	1	0	0	1	;
	5	6	2400	1	45	1	1	0	0	1	;
	6	3	1000	0.3	20	1	1	0	0	1	;
	6	5	2400	1	45	1	1	0	0	1	;
	

