<NUMBER OF ZONES> 6											
<NUMBER OF NODES> 6											
<FIRST THRU NODE> 2											
<NUMBER OF LINKS> 6
<END OF METADATA>											


~ 	Init node 	Term node 	Capacity 	Length 	Free Flow Time 	B	Power	Speed limit 	Toll 	Type	;
	1	2	5	1	2	1	1	0	0	1	;
	2	3	1	1	2	1	1	0	0	1	;
	2	4	1	1	2	1	1	0	0	1	;
	3	5	3	1	3	1	1	0	0	1	;
	4	5	3	1	3	1	1	0	0	1	;
	5	6	2	1	2	1	1	0	0	1	;
