 <NUMBER OF ZONES> 4											
<NUMBER OF NODES> 4											
<FIRST THRU NODE> 2											
<NUMBER OF LINKS> 5
<END OF METADATA>											


~ 	Init node 	Term node 	Capacity 	Length 	Free Flow Time 	B	Power	Speed limit 	Toll 	Type	;
	1	2	3	1	2	1	1	0	0	1	;
	2	4	4	1	1	1	1	0	0	1	;
	1	3	2	1	4	1	1	0	0	1	;
	3	4	2	1	1	1	1	0	0	1	;
	2	3	2	1	5	1	1	0	0	1	;
